<?xml version="1.0" encoding="UTF-8"?>
<configuration xmlns:xsi="http://www.w3.org/2001/XMLSchema-instance" xsi:noNamespaceSchemaLocation="http://sumo.dlr.de/xsd/sumoConfiguration.xsd">
    <input>
        <net-file value=""/>
        <route-files value=""/>
    </input>
    <time>
        <begin value="0"/>
    	<step-length value="0.1" />
    </time>
    <report>
        <verbose value="true"/>
        <no-step-log value="true"/>
    </report>
    <processing>
        <time-to-teleport value="-1"/>
        <lanechange.duration value="15"/>
        <collision.mingap-factor value="1"/>
        <collision.check-junctions value="true" />
        <collision.action value="none"/>
    </processing>
</configuration>
