<!-- generated on 2020-06-23 15:59:07.270526 by example.py UNKNOWN
-->
<connections>
	<connection contPos="-4.0" from="100" fromLane="0" keepClear="true" shape="-14.783566666767001,-16.619000002741814 -9.373566666734405,-16.219000002369285 -6.078566666692495,-15.619000002741814 -3.8535666667157784,-14.969000002369285 -2.123566666734405,-13.969000002369285 -0.07856666669249535,-12.519000003114343 1.0614333333214745,-11.219000002369285 2.186433333205059,-9.119000002741814 2.5064333332702518,-7.219000002369285 2.566433333326131,-5.219000002369285 2.4864333332516253,-2.3190000019967556 2.3664333333726972,-0.8690000027418137 " to="112" toLane="0" via="112_0" />
	<connection contPos="-4.0" from="100" fromLane="0" keepClear="true" shape="-14.783566666767001,-16.619000002741814 2.091433333232999,-15.41900000255555 12.071433333214372,-14.519000003114343 " to="110" toLane="0" via="110_0" />
	<connection contPos="-4.0" from="100" fromLane="0" keepClear="true" shape="-14.783566666767001,-16.619000002741814 -10.333566666697152,-16.66900000255555 -8.113566666725092,-16.969000002369285 -5.813566666794941,-17.469000002369285 -4.068566666683182,-17.969000002369285 -2.258566666743718,-19.069000002928078 -0.8735666666179895,-20.369000002741814 0.2764333332888782,-22.719000002369285 0.8364333333447576,-25.369000002741814 0.9914333332562819,-27.619000002741814 " to="108" toLane="0" via="108_0" />
	<connection contPos="-4.0" from="111" fromLane="0" keepClear="true" shape="11.796433333307505,-10.069000002928078 9.631433333270252,-10.119000002741814 8.086433333344758,-9.969000002369285 6.6214333332609385,-9.519000003114343 5.551433333312161,-8.969000002369285 4.581433333223686,-8.269000003114343 3.966433333232999,-7.519000003114343 3.306433333316818,-6.619000002741814 2.9214333333075047,-5.669000002555549 2.5764333333354443,-3.5190000031143427 2.3664333333726972,-0.8690000027418137 " to="112" toLane="0" via="112_0" />
	<connection contPos="-4.0" from="111" fromLane="0" keepClear="true" shape="11.796433333307505,-10.069000002928078 8.556433333316818,-10.519000003114343 6.616433333256282,-11.319000002928078 5.131433333270252,-12.769000003114343 3.1114333332516253,-15.169000003486872 1.7064333332236856,-17.619000002741814 0.891433333279565,-20.519000003114343 0.7764333332888782,-24.019000003114343 0.9914333332562819,-27.619000002741814 " to="108" toLane="0" via="108_0" />
	<connection contPos="-4.0" from="111" fromLane="0" keepClear="true" shape="11.796433333307505,-10.069000002928078 1.7064333332236856,-10.91900000255555 -14.818566666683182,-12.019000003114343 " to="104" toLane="0" via="104_0" />
	<connection contPos="-4.0" from="113" fromLane="0" keepClear="true" shape="-2.283566666767001,-1.2190000023692846 -1.7135666667018086,-7.119000002741814 -0.8285666666924953,-13.319000002928078 0.25143333326559514,-20.469000002369285 0.9914333332562819,-27.619000002741814 " to="108" toLane="0" via="108_0" />
	<connection contPos="-4.0" from="113" fromLane="0" keepClear="true" shape="-2.283566666767001,-1.2190000023692846 -2.158566666767001,-2.7190000023692846 -1.983566666720435,-5.119000002741814 -2.0035666667390615,-6.669000003486872 -2.1385666667483747,-7.669000002555549 -2.598566666711122,-8.66900000255555 -3.2485666666179895,-9.269000003114343 -4.573566666687839,-10.169000003486872 -5.723566666711122,-10.769000003114343 -7.188566666794941,-11.219000002369285 -9.883566666743718,-11.619000002741814 -14.818566666683182,-12.019000003114343 " to="104" toLane="0" via="104_0" />
	<connection contPos="-4.0" from="113" fromLane="0" keepClear="true" shape="-2.283566666767001,-1.2190000023692846 -1.983566666720435,-4.019000003114343 -1.5735666666878387,-6.919000002555549 -1.0385666666552424,-8.569000002928078 -0.03356666676700115,-10.269000003114343 1.0464333333075047,-11.719000002369285 2.8364333333447576,-12.969000002369285 4.591433333232999,-13.919000003486872 6.971433333354071,-14.619000002741814 9.376433333265595,-14.669000003486872 12.071433333214372,-14.519000003114343 " to="110" toLane="0" via="110_0" />
	<connection contPos="-4.0" from="109" fromLane="0" keepClear="true" shape="5.456433333223686,-27.319000001996756 4.766433333279565,-20.069000002928078 3.8214333332143724,-12.919000003486872 2.8864333332749084,-6.769000003114343 2.3664333333726972,-0.8690000027418137 " to="112" toLane="0" via="112_0" />
	<connection contPos="-4.0" from="109" fromLane="0" keepClear="true" shape="5.456433333223686,-27.319000001996756 5.216433333232999,-24.069000001996756 5.256433333270252,-21.719000002369285 5.766433333279565,-19.569000002928078 6.776433333288878,-17.769000003114343 8.066433333326131,-16.369000002741814 8.996433333260939,-15.519000003114343 10.076433333335444,-15.019000003114343 12.071433333214372,-14.519000003114343 " to="110" toLane="0" via="110_0" />
	<connection contPos="-4.0" from="109" fromLane="0" keepClear="true" shape="5.456433333223686,-27.319000001996756 5.236433333251625,-24.41900000348687 4.546433333307505,-21.16900000255555 2.556433333316818,-17.569000002928078 0.1914333333261311,-15.569000002928078 -2.443566666683182,-13.969000002369285 -4.7535666667390615,-13.069000001996756 -7.2785666667623445,-12.569000001996756 -9.783566666767001,-12.16900000255555 -14.818566666683182,-12.019000003114343 " to="104" toLane="0" via="104_0" />
</connections>
