<!-- generated on 2020-06-23 15:59:07.268199 by example.py UNKNOWN
-->
<edges>
	<edge from="19" function="normal" id="100" numLanes="1" spreadType="center" to="20">
		<lane index="0" length="82.58719644685891" shape="-97.36856666672975,-17.219000002369285 -59.69856666668784,-16.91900000255555 -14.783566666767001,-16.619000002741814 " speed="36.11111111111111" width="4.500099998888324"/>
	</edge>
	<edge from="20" function="normal" id="104" numLanes="1" spreadType="center" to="22">
		<lane index="0" length="82.59840660253877" shape="-14.818566666683182,-12.019000003114343 -59.733566666720435,-12.41900000255555 -97.41356666665524,-12.769000003114343 " speed="36.11111111111111" width="4.400284081178809"/>
	</edge>
	<edge from="20" function="normal" id="110" numLanes="1" spreadType="center" to="26">
		<lane index="0" length="78.63181626381723" shape="12.071433333214372,-14.519000003114343 38.331433333223686,-12.119000002741814 69.40143333328888,-9.569000002928078 90.48643333325163,-9.919000003486872 " speed="36.11111111111111" width="4.3150434526651145"/>
	</edge>
	<edge from="27" function="normal" id="111" numLanes="1" spreadType="center" to="20">
		<lane index="0" length="78.82279790465536" shape="90.40143333328888,-4.669000003486872 69.22643333324231,-5.119000002741814 37.90143333328888,-7.769000003114343 11.796433333307505,-10.069000002928078 " speed="36.11111111111111" width="4.423980107894739"/>
	</edge>
	<edge from="28" function="normal" id="113" numLanes="1" spreadType="center" to="20">
		<lane index="0" length="199.02796035294438" shape="-25.623566666734405,196.43099999707192 -22.263566666748375,168.1309999972582 -18.958566666697152,140.78099999763072 -15.328566666692495,110.63099999725819 -12.178566666785628,84.78099999763072 -8.803566666785628,58.08099999744445 -7.468566666706465,45.83099999744445 -5.808566666673869,31.430999997071922 -4.388566666748375,19.130999997258186 -3.2985666666645557,9.380999997258186 -2.283566666767001,-1.2190000023692846 " speed="36.11111111111111" width="4.597434066945836"/>
	</edge>
	<edge from="20" function="normal" id="108" numLanes="1" spreadType="center" to="29">
		<lane index="0" length="16.44038346432732" shape="0.9914333332562819,-27.619000002741814 1.5464333333075047,-35.969000002369285 2.141433333279565,-44.01900000311434 " speed="36.11111111111111" width="4.509988913499482"/>
	</edge>
	<edge from="30" function="normal" id="109" numLanes="1" spreadType="center" to="20">
		<lane index="0" length="16.39926141444701" shape="6.726433333242312,-43.66900000255555 6.091433333232999,-35.619000002741814 5.456433333223686,-27.319000001996756 " speed="36.11111111111111" width="4.440146394021494"/>
	</edge>
	<edge from="20" function="normal" id="112" numLanes="1" spreadType="center" to="32">
		<lane index="0" length="199.30734982591522" shape="2.3664333333726972,-0.8690000027418137 1.416433333302848,9.780999997630715 0.29143333330284804,19.730999996885657 -1.0685666666831821,32.030999997630715 -2.608566666720435,46.33099999744445 -3.8935666667530313,58.48099999688566 -7.113566666725092,85.23099999688566 -10.52856666664593,111.48099999688566 -14.223566666711122,141.28099999763072 -17.543566666776314,169.23099999688566 -20.778566666762345,197.08099999744445 " speed="36.11111111111111" width="4.6273210392374144"/>
	</edge>
</edges>
