<?xml version="1.0" encoding="UTF-8"?>

<!-- generated on Mon Jun 29 17:38:00 2020 by Eclipse SUMO netconvert Version 1.6.0
<configuration xmlns:xsi="http://www.w3.org/2001/XMLSchema-instance" xsi:noNamespaceSchemaLocation="http://sumo.dlr.de/xsd/netconvertConfiguration.xsd">

    <input>
        <node-files value="nodes.net.xml"/>
        <edge-files value="edges.net.xml"/>
    </input>

    <processing>
        <plain.extend-edge-shape value="true"/>
        <geometry.avoid-overlap value="true"/>
        <offset.disable-normalization value="true"/>
    </processing>

    <junctions>
        <no-turnarounds value="true"/>
        <junctions.internal-link-detail value="20"/>
    </junctions>

    <report>
        <aggregate-warnings value="5"/>
    </report>

</configuration>
-->

<net version="1.6" junctionCornerDetail="5" junctionLinkDetail="20" limitTurnSpeed="5.50" xmlns:xsi="http://www.w3.org/2001/XMLSchema-instance" xsi:noNamespaceSchemaLocation="http://sumo.dlr.de/xsd/net_file.xsd">

    <location netOffset="0.00,0.00" convBoundary="-97.41,-44.02,90.49,197.08" origBoundary="-97.41,-44.02,90.49,197.08" projParameter="!"/>

    <edge id=":20_0" function="internal">
        <lane id=":20_0_0" index="0" speed="8.31" length="14.98" width="4.63" shape="11.67,-10.08 10.80,-10.13 9.98,-10.12 9.20,-10.05 8.46,-9.92 7.76,-9.73 7.10,-9.48 6.49,-9.18 5.92,-8.81 5.39,-8.38 4.90,-7.90 4.45,-7.35 4.04,-6.75 3.68,-6.09 3.35,-5.37 3.07,-4.59 2.83,-3.75 2.64,-2.85 2.48,-1.89 2.37,-0.87"/>
    </edge>
    <edge id=":20_1" function="internal">
        <lane id=":20_1_0" index="0" speed="36.11" length="26.56" width="4.40" shape="11.67,-10.08 -14.82,-12.02"/>
    </edge>
    <edge id=":20_2" function="internal">
        <lane id=":20_2_0" index="0" speed="10.27" length="7.64" width="4.51" shape="11.67,-10.08 10.46,-10.23 9.33,-10.47 8.27,-10.79 7.28,-11.20 6.36,-11.70 5.51,-12.28 4.74,-12.94"/>
    </edge>
    <edge id=":20_12" function="internal">
        <lane id=":20_12_0" index="0" speed="10.27" length="15.62" width="4.51" shape="4.74,-12.94 4.03,-13.70 3.40,-14.53 2.84,-15.46 2.35,-16.46 1.93,-17.56 1.58,-18.74 1.31,-20.00 1.10,-21.36 0.97,-22.79 0.90,-24.32 0.91,-25.92 0.99,-27.62"/>
    </edge>
    <edge id=":20_3" function="internal">
        <lane id=":20_3_0" index="0" speed="8.66" length="16.23" width="4.32" shape="5.46,-27.32 5.38,-26.08 5.36,-24.90 5.37,-23.78 5.44,-22.73 5.56,-21.74 5.72,-20.81 5.92,-19.95 6.18,-19.15 6.48,-18.41 6.83,-17.73 7.22,-17.12 7.66,-16.58 8.15,-16.09 8.69,-15.67 9.27,-15.32 9.90,-15.02 10.58,-14.79 11.30,-14.62 12.07,-14.52"/>
    </edge>
    <edge id=":20_4" function="internal">
        <lane id=":20_4_0" index="0" speed="36.11" length="26.63" width="4.63" shape="5.46,-27.32 2.37,-0.87"/>
    </edge>
    <edge id=":20_5" function="internal">
        <lane id=":20_5_0" index="0" speed="11.53" length="28.64" width="4.40" shape="5.46,-27.32 5.28,-25.73 5.01,-24.24 4.64,-22.82 4.16,-21.50 3.59,-20.26 2.92,-19.11 2.15,-18.04 1.28,-17.06 0.32,-16.17 -0.75,-15.37 -1.92,-14.65 -3.18,-14.02 -4.55,-13.47 -6.01,-13.01 -7.57,-12.64 -9.24,-12.36 -11.00,-12.16 -12.86,-12.04 -14.82,-12.02"/>
    </edge>
    <edge id=":20_6" function="internal">
        <lane id=":20_6_0" index="0" speed="10.07" length="21.65" width="4.51" shape="-14.78,-16.62 -13.23,-16.64 -11.77,-16.72 -10.39,-16.87 -9.08,-17.07 -7.86,-17.34 -6.71,-17.67 -5.64,-18.07 -4.65,-18.52 -3.74,-19.04 -2.91,-19.62 -2.16,-20.26 -1.49,-20.96 -0.90,-21.73 -0.39,-22.55 0.05,-23.44 0.40,-24.39 0.68,-25.41 0.87,-26.48 0.99,-27.62"/>
    </edge>
    <edge id=":20_7" function="internal">
        <lane id=":20_7_0" index="0" speed="36.11" length="26.93" width="4.32" shape="-14.78,-16.62 12.07,-14.52"/>
    </edge>
    <edge id=":20_8" function="internal">
        <lane id=":20_8_0" index="0" speed="10.66" length="13.38" width="4.63" shape="-14.78,-16.62 -12.88,-16.56 -11.10,-16.42 -9.42,-16.19 -7.86,-15.88 -6.40,-15.48 -5.06,-14.99 -3.82,-14.42 -2.70,-13.77 -2.05,-13.29"/>
    </edge>
    <edge id=":20_13" function="internal">
        <lane id=":20_13_0" index="0" speed="10.66" length="13.81" width="4.63" shape="-2.05,-13.29 -1.69,-13.02 -0.79,-12.19 0.01,-11.28 0.69,-10.28 1.26,-9.19 1.72,-8.02 2.07,-6.76 2.31,-5.42 2.44,-3.99 2.46,-2.47 2.37,-0.87"/>
    </edge>
    <edge id=":20_9" function="internal">
        <lane id=":20_9_0" index="0" speed="9.07" length="19.25" width="4.40" shape="-2.28,-1.28 -2.21,-2.37 -2.22,-3.40 -2.32,-4.37 -2.50,-5.29 -2.75,-6.14 -3.09,-6.94 -3.51,-7.68 -4.01,-8.36 -4.58,-8.98 -5.24,-9.55 -5.99,-10.06 -6.81,-10.51 -7.71,-10.90 -8.69,-11.23 -9.76,-11.50 -10.90,-11.72 -12.13,-11.88 -13.43,-11.98 -14.82,-12.02"/>
    </edge>
    <edge id=":20_10" function="internal">
        <lane id=":20_10_0" index="0" speed="36.11" length="26.54" width="4.51" shape="-2.28,-1.28 0.99,-27.62"/>
    </edge>
    <edge id=":20_11" function="internal">
        <lane id=":20_11_0" index="0" speed="10.03" length="22.36" width="4.32" shape="-2.28,-1.28 -2.10,-2.76 -1.86,-4.15 -1.55,-5.45 -1.18,-6.66 -0.75,-7.79 -0.25,-8.83 0.31,-9.79 0.94,-10.66 1.63,-11.44 2.39,-12.14 3.21,-12.75 4.09,-13.27 5.04,-13.71 6.05,-14.06 7.12,-14.33 8.27,-14.50 9.47,-14.60 10.74,-14.60 12.07,-14.52"/>
    </edge>

    <edge id="100" from="19" to="20" priority="-1" spreadType="center" shape="-97.37,-17.22 18.06,-12.87">
        <lane id="100_0" index="0" speed="36.11" length="82.59" width="4.50" customShape="1" shape="-97.37,-17.22 -59.70,-16.92 -14.78,-16.62"/>
    </edge>
    <edge id="104" from="20" to="22" priority="-1" spreadType="center" shape="17.89,-8.42 -97.41,-12.77">
        <lane id="104_0" index="0" speed="36.11" length="82.60" width="4.40" customShape="1" shape="-14.82,-12.02 -59.73,-12.42 -97.41,-12.77"/>
    </edge>
    <edge id="108" from="20" to="29" priority="-1" spreadType="center" shape="15.89,-9.66 2.14,-44.02">
        <lane id="108_0" index="0" speed="36.11" length="16.44" width="4.51" customShape="1" shape="0.99,-27.62 1.55,-35.97 2.14,-44.02"/>
    </edge>
    <edge id="109" from="30" to="20" priority="-1" spreadType="center" shape="6.73,-43.67 20.03,-11.33">
        <lane id="109_0" index="0" speed="36.11" length="16.40" width="4.44" customShape="1" shape="6.73,-43.67 6.09,-35.62 5.46,-27.32"/>
    </edge>
    <edge id="110" from="20" to="26" priority="-1" spreadType="center" shape="17.95,-12.78 90.49,-9.92">
        <lane id="110_0" index="0" speed="36.11" length="78.63" width="4.32" customShape="1" shape="12.07,-14.52 38.33,-12.12 69.40,-9.57 90.49,-9.92"/>
    </edge>
    <edge id="111" from="27" to="20" priority="-1" spreadType="center" shape="90.40,-4.67 17.75,-8.41">
        <lane id="111_0" index="0" speed="36.11" length="78.95" width="4.42" customShape="1" shape="90.40,-4.67 69.23,-5.12 37.90,-7.77 11.67,-10.08"/>
    </edge>
    <edge id="112" from="20" to="32" priority="-1" spreadType="center" shape="20.20,-10.20 -20.78,197.08">
        <lane id="112_0" index="0" speed="36.11" length="199.31" width="4.63" customShape="1" shape="2.37,-0.87 1.42,9.78 0.29,19.73 -1.07,32.03 -2.61,46.33 -3.89,58.48 -7.11,85.23 -10.53,111.48 -14.22,141.28 -17.54,169.23 -20.78,197.08"/>
    </edge>
    <edge id="113" from="28" to="20" priority="-1" spreadType="center" shape="-25.62,196.43 15.68,-11.09">
        <lane id="113_0" index="0" speed="36.11" length="199.09" width="4.60" customShape="1" shape="-25.62,196.43 -22.26,168.13 -18.96,140.78 -15.33,110.63 -12.18,84.78 -8.80,58.08 -7.47,45.83 -5.81,31.43 -4.39,19.13 -3.30,9.38 -2.28,-1.28"/>
    </edge>

    <junction id="19" type="dead_end" x="-97.37" y="-17.22" incLanes="" intLanes="" shape="-97.39,-14.97 -97.35,-19.47"/>
    <junction id="20" type="priority" x="17.93" y="-10.62" incLanes="111_0 109_0 100_0 113_0" intLanes=":20_0_0 :20_1_0 :20_12_0 :20_3_0 :20_4_0 :20_5_0 :20_6_0 :20_7_0 :20_13_0 :20_9_0 :20_10_0 :20_11_0" shape="11.46,-7.88 12.27,-16.67 9.37,-18.05 8.44,-19.54 7.84,-21.56 7.59,-24.10 7.67,-27.17 -1.26,-27.77 -1.80,-25.03 -3.02,-22.79 -4.93,-21.05 -7.52,-19.82 -10.80,-19.09 -14.76,-18.87 -14.84,-9.82 -11.48,-9.56 -8.78,-8.85 -6.74,-7.69 -5.36,-6.07 -4.63,-4.01 -4.57,-1.49 4.67,-0.66 5.05,-3.02 5.73,-4.91 6.72,-6.34 8.00,-7.32 9.58,-7.83">
        <request index="0"  response="000000000000" foes="000100010000" cont="0"/>
        <request index="1"  response="000000000000" foes="111100110000" cont="0"/>
        <request index="2"  response="000011000000" foes="110011110000" cont="1"/>
        <request index="3"  response="000010000000" foes="100010000000" cont="0"/>
        <request index="4"  response="000110000111" foes="100110000111" cont="0"/>
        <request index="5"  response="011110000110" foes="011110000110" cont="0"/>
        <request index="6"  response="000000000000" foes="010000000100" cont="0"/>
        <request index="7"  response="000000000000" foes="110000111100" cont="0"/>
        <request index="8"  response="000000000011" foes="110000110011" cont="1"/>
        <request index="9"  response="000000000010" foes="000000100010" cont="0"/>
        <request index="10" response="000111000110" foes="000111100110" cont="0"/>
        <request index="11" response="000110011110" foes="000110011110" cont="0"/>
    </junction>
    <junction id="22" type="dead_end" x="-97.41" y="-12.77" incLanes="104_0" intLanes="" shape="-97.43,-10.57 -97.39,-14.97"/>
    <junction id="26" type="dead_end" x="90.49" y="-9.92" incLanes="110_0" intLanes="" shape="90.45,-12.08 90.52,-7.76"/>
    <junction id="27" type="dead_end" x="90.40" y="-4.67" incLanes="" intLanes="" shape="90.45,-6.88 90.35,-2.46"/>
    <junction id="28" type="dead_end" x="-25.62" y="196.43" incLanes="" intLanes="" shape="-23.34,196.70 -27.91,196.16"/>
    <junction id="29" type="dead_end" x="2.14" y="-44.02" incLanes="108_0" intLanes="" shape="-0.11,-44.19 4.39,-43.85"/>
    <junction id="30" type="dead_end" x="6.73" y="-43.67" incLanes="" intLanes="" shape="4.51,-43.84 8.94,-43.49"/>
    <junction id="32" type="dead_end" x="-20.78" y="197.08" incLanes="112_0" intLanes="" shape="-18.48,197.35 -23.08,196.81"/>

    <junction id=":20_12_0" type="internal" x="4.74" y="-12.94" incLanes=":20_2_0 100_0" intLanes=":20_4_0 :20_5_0 :20_6_0 :20_7_0 :20_10_0 :20_11_0"/>
    <junction id=":20_13_0" type="internal" x="-2.05" y="-13.29" incLanes=":20_8_0 111_0" intLanes=":20_0_0 :20_1_0 :20_4_0 :20_5_0 :20_10_0 :20_11_0"/>

    <connection from="100" to="108" fromLane="0" toLane="0" via=":20_6_0" dir="r" state="M"/>
    <connection from="100" to="110" fromLane="0" toLane="0" via=":20_7_0" dir="s" state="M"/>
    <connection from="100" to="112" fromLane="0" toLane="0" via=":20_8_0" dir="l" state="m"/>
    <connection from="109" to="110" fromLane="0" toLane="0" via=":20_3_0" dir="r" state="m"/>
    <connection from="109" to="112" fromLane="0" toLane="0" via=":20_4_0" dir="s" state="m"/>
    <connection from="109" to="104" fromLane="0" toLane="0" via=":20_5_0" dir="l" state="m"/>
    <connection from="111" to="112" fromLane="0" toLane="0" via=":20_0_0" dir="r" state="M"/>
    <connection from="111" to="104" fromLane="0" toLane="0" via=":20_1_0" dir="s" state="M"/>
    <connection from="111" to="108" fromLane="0" toLane="0" via=":20_2_0" dir="l" state="m"/>
    <connection from="113" to="104" fromLane="0" toLane="0" via=":20_9_0" dir="r" state="m"/>
    <connection from="113" to="108" fromLane="0" toLane="0" via=":20_10_0" dir="s" state="m"/>
    <connection from="113" to="110" fromLane="0" toLane="0" via=":20_11_0" dir="l" state="m"/>

    <connection from=":20_0" to="112" fromLane="0" toLane="0" dir="r" state="M"/>
    <connection from=":20_1" to="104" fromLane="0" toLane="0" dir="s" state="M"/>
    <connection from=":20_2" to="108" fromLane="0" toLane="0" via=":20_12_0" dir="l" state="m"/>
    <connection from=":20_12" to="108" fromLane="0" toLane="0" dir="l" state="M"/>
    <connection from=":20_3" to="110" fromLane="0" toLane="0" dir="r" state="M"/>
    <connection from=":20_4" to="112" fromLane="0" toLane="0" dir="s" state="M"/>
    <connection from=":20_5" to="104" fromLane="0" toLane="0" dir="l" state="M"/>
    <connection from=":20_6" to="108" fromLane="0" toLane="0" dir="r" state="M"/>
    <connection from=":20_7" to="110" fromLane="0" toLane="0" dir="s" state="M"/>
    <connection from=":20_8" to="112" fromLane="0" toLane="0" via=":20_13_0" dir="l" state="m"/>
    <connection from=":20_13" to="112" fromLane="0" toLane="0" dir="l" state="M"/>
    <connection from=":20_9" to="104" fromLane="0" toLane="0" dir="r" state="M"/>
    <connection from=":20_10" to="108" fromLane="0" toLane="0" dir="s" state="M"/>
    <connection from=":20_11" to="110" fromLane="0" toLane="0" dir="l" state="M"/>

</net>
