<!-- generated on 2020-06-23 15:59:07.270107 by example.py UNKNOWN
-->
<nodes>
	<node function="unregulated" id="19" x="-97.36856666672975" y="-17.219000002369285"/>
	<node type="traffic_light"   id="150" tl="0" x="-97.36856666672975" y="-17.219000002369285"/>
	<node function="unregulated" id="20" x="17.928433333244175" y="-10.619000002555548"/>
	<node function="unregulated" id="22" x="-97.41356666665524" y="-12.769000003114343"/>
	<node function="unregulated" id="26" x="90.48643333325163" y="-9.919000003486872"/>
	<node function="unregulated" id="27" x="90.40143333328888" y="-4.669000003486872"/>
	<node function="unregulated" id="28" x="-25.623566666734405" y="196.43099999707192"/>
	<node function="unregulated" id="29" x="2.141433333279565" y="-44.01900000311434"/>
	<node function="unregulated" id="30" x="6.726433333242312" y="-43.66900000255555"/>
	<node function="unregulated" id="32" x="-20.778566666762345" y="197.08099999744445"/>
</nodes>
