<?xml version="1.0" encoding="UTF-8"?>

<!-- generated on Tue Jun 23 18:58:06 2020 by Eclipse SUMO netconvert Version 1.6.0
<configuration xmlns:xsi="http://www.w3.org/2001/XMLSchema-instance" xsi:noNamespaceSchemaLocation="http://sumo.dlr.de/xsd/netconvertConfiguration.xsd">

    <input>
        <node-files value="nodes.net.xml"/>
        <edge-files value="edges.net.xml"/>
        <connection-files value="_connections.net.xml"/>
        <tllogic-files value="tll.net.xml"/>
    </input>

    <output>
        <output-file value="test.net.xml"/>
    </output>

    <processing>
        <plain.extend-edge-shape value="true"/>
        <geometry.remove.keep-edges.explicit value="true"/>
        <geometry.avoid-overlap value="true"/>
        <offset.disable-normalization value="true"/>
    </processing>

    <junctions>
        <no-turnarounds value="true"/>
        <junctions.internal-link-detail value="20"/>
    </junctions>

    <report>
        <verbose value="true"/>
        <aggregate-warnings value="5"/>
    </report>

</configuration>
-->

<net version="1.6" junctionCornerDetail="5" junctionLinkDetail="20" limitTurnSpeed="5.50" xmlns:xsi="http://www.w3.org/2001/XMLSchema-instance" xsi:noNamespaceSchemaLocation="http://sumo.dlr.de/xsd/net_file.xsd">

    <location netOffset="0.00,0.00" convBoundary="-97.41,-44.02,90.49,197.08" origBoundary="-97.41,-44.02,90.49,197.08" projParameter="!"/>

    <edge id=":20_0" function="internal">
        <lane id=":20_0_0" index="0" speed="8.43" length="15.47" width="4.63" shape="11.67,-10.07 9.63,-10.12 8.09,-9.97 6.62,-9.52 5.55,-8.97 4.58,-8.27 3.97,-7.52 3.31,-6.62 2.92,-5.67 2.58,-3.52 2.37,-0.87"/>
    </edge>
    <edge id=":20_1" function="internal">
        <lane id=":20_1_0" index="0" speed="36.11" length="26.56" width="4.40" shape="11.67,-10.08 1.71,-10.92 -14.82,-12.02"/>
    </edge>
    <edge id=":20_2" function="internal">
        <lane id=":20_2_0" index="0" speed="10.30" length="23.40" width="4.51" shape="11.67,-10.09 8.56,-10.52 6.62,-11.32 5.13,-12.77 3.11,-15.17 1.71,-17.62 0.89,-20.52 0.78,-24.02 0.99,-27.62"/>
    </edge>
    <edge id=":20_3" function="internal">
        <lane id=":20_3_0" index="0" speed="8.68" length="16.30" width="4.32" shape="5.46,-27.32 5.22,-24.07 5.26,-21.72 5.77,-19.57 6.78,-17.77 8.07,-16.37 9.00,-15.52 10.08,-15.02 12.07,-14.52"/>
    </edge>
    <edge id=":20_4" function="internal">
        <lane id=":20_4_0" index="0" speed="36.11" length="26.64" width="4.63" shape="5.46,-27.32 4.77,-20.07 3.82,-12.92 2.89,-6.77 2.37,-0.87"/>
    </edge>
    <edge id=":20_5" function="internal">
        <lane id=":20_5_0" index="0" speed="11.63" length="29.15" width="4.40" shape="5.46,-27.32 5.24,-24.42 4.55,-21.17 2.56,-17.57 0.19,-15.57 -2.44,-13.97 -4.75,-13.07 -7.28,-12.57 -9.78,-12.17 -14.82,-12.02"/>
    </edge>
    <edge id=":20_6" function="internal">
        <lane id=":20_6_0" index="0" speed="10.25" length="22.46" width="4.51" shape="-14.78,-16.62 -10.33,-16.67 -8.11,-16.97 -5.81,-17.47 -4.07,-17.97 -2.26,-19.07 -0.87,-20.37 0.28,-22.72 0.84,-25.37 0.99,-27.62"/>
    </edge>
    <edge id=":20_7" function="internal">
        <lane id=":20_7_0" index="0" speed="36.11" length="26.94" width="4.32" shape="-14.78,-16.62 2.09,-15.42 12.07,-14.52"/>
    </edge>
    <edge id=":20_8" function="internal">
        <lane id=":20_8_0" index="0" speed="10.81" length="27.99" width="4.63" shape="-14.78,-16.62 -9.37,-16.22 -6.08,-15.62 -3.85,-14.97 -2.12,-13.97 -0.08,-12.52 1.06,-11.22 2.19,-9.12 2.51,-7.22 2.57,-5.22 2.49,-2.32 2.37,-0.87"/>
    </edge>
    <edge id=":20_9" function="internal">
        <lane id=":20_9_0" index="0" speed="9.35" length="20.56" width="4.40" shape="-2.28,-1.22 -2.16,-2.72 -1.98,-5.12 -2.00,-6.67 -2.14,-7.67 -2.60,-8.67 -3.25,-9.27 -4.57,-10.17 -5.72,-10.77 -7.19,-11.22 -9.88,-11.62 -14.82,-12.02"/>
    </edge>
    <edge id=":20_10" function="internal">
        <lane id=":20_10_0" index="0" speed="36.11" length="26.61" width="4.51" shape="-2.28,-1.22 -1.71,-7.12 -0.83,-13.32 0.25,-20.47 0.99,-27.62"/>
    </edge>
    <edge id=":20_11" function="internal">
        <lane id=":20_11_0" index="0" speed="10.17" length="23.03" width="4.32" shape="-2.28,-1.22 -1.98,-4.02 -1.57,-6.92 -1.04,-8.57 -0.03,-10.27 1.05,-11.72 2.84,-12.97 4.59,-13.92 6.97,-14.62 9.38,-14.67 12.07,-14.52"/>
    </edge>

    <edge id="100" from="19" to="20" priority="-1" spreadType="center" shape="-97.37,-17.22 18.06,-12.87">
        <lane id="100_0" index="0" speed="36.11" length="82.59" width="4.50" customShape="1" shape="-97.37,-17.22 -59.70,-16.92 -14.78,-16.62"/>
    </edge>
    <edge id="104" from="20" to="22" priority="-1" spreadType="center" shape="17.89,-8.42 -97.41,-12.77">
        <lane id="104_0" index="0" speed="36.11" length="82.60" width="4.40" customShape="1" shape="-14.82,-12.02 -59.73,-12.42 -97.41,-12.77"/>
    </edge>
    <edge id="108" from="20" to="29" priority="-1" spreadType="center" shape="15.89,-9.66 2.14,-44.02">
        <lane id="108_0" index="0" speed="36.11" length="16.44" width="4.51" customShape="1" shape="0.99,-27.62 1.55,-35.97 2.14,-44.02"/>
    </edge>
    <edge id="109" from="30" to="20" priority="-1" spreadType="center" shape="6.73,-43.67 20.03,-11.33">
        <lane id="109_0" index="0" speed="36.11" length="16.40" width="4.44" customShape="1" shape="6.73,-43.67 6.09,-35.62 5.46,-27.32"/>
    </edge>
    <edge id="110" from="20" to="26" priority="-1" spreadType="center" shape="17.95,-12.78 90.49,-9.92">
        <lane id="110_0" index="0" speed="36.11" length="78.63" width="4.32" customShape="1" shape="12.07,-14.52 38.33,-12.12 69.40,-9.57 90.49,-9.92"/>
    </edge>
    <edge id="111" from="27" to="20" priority="-1" spreadType="center" shape="90.40,-4.67 17.75,-8.41">
        <lane id="111_0" index="0" speed="36.11" length="78.95" width="4.42" customShape="1" shape="90.40,-4.67 69.23,-5.12 37.90,-7.77 11.67,-10.08"/>
    </edge>
    <edge id="112" from="20" to="32" priority="-1" spreadType="center" shape="20.20,-10.20 -20.78,197.08">
        <lane id="112_0" index="0" speed="36.11" length="199.31" width="4.63" customShape="1" shape="2.37,-0.87 1.42,9.78 0.29,19.73 -1.07,32.03 -2.61,46.33 -3.89,58.48 -7.11,85.23 -10.53,111.48 -14.22,141.28 -17.54,169.23 -20.78,197.08"/>
    </edge>
    <edge id="113" from="28" to="20" priority="-1" spreadType="center" shape="-25.62,196.43 15.68,-11.09">
        <lane id="113_0" index="0" speed="36.11" length="199.09" width="4.60" customShape="1" shape="-25.62,196.43 -22.26,168.13 -18.96,140.78 -15.33,110.63 -12.18,84.78 -8.80,58.08 -7.47,45.83 -5.81,31.43 -4.39,19.13 -3.30,9.38 -2.28,-1.28"/>
    </edge>

    <tlLogic id="0" type="static" programID="test" offset="0">
        <phase duration="10" state="r"/>
        <phase duration="5"  state="y"/>
        <phase duration="40" state="G"/>
    </tlLogic>

    <junction id="19" type="dead_end" x="-97.37" y="-17.22" incLanes="" intLanes="" shape="-97.39,-14.97 -97.35,-19.47"/>
    <junction id="20" type="traffic_light" x="17.93" y="-10.62" incLanes="111_0 109_0 100_0 113_0" intLanes=":20_0_0 :20_1_0 :20_2_0 :20_3_0 :20_4_0 :20_5_0 :20_6_0 :20_7_0 :20_8_0 :20_9_0 :20_10_0 :20_11_0" shape="11.46,-7.88 12.27,-16.67 9.37,-18.05 8.44,-19.54 7.84,-21.56 7.59,-24.10 7.67,-27.17 -1.26,-27.77 -1.80,-25.03 -3.02,-22.79 -4.93,-21.05 -7.52,-19.82 -10.80,-19.09 -14.76,-18.87 -14.84,-9.82 -11.48,-9.56 -8.78,-8.85 -6.74,-7.69 -5.36,-6.07 -4.63,-4.01 -4.57,-1.49 4.67,-0.66 5.05,-3.02 5.73,-4.91 6.72,-6.34 8.00,-7.32 9.58,-7.83">
        <request index="0"  response="000100000000" foes="000100010000" cont="0"/>
        <request index="1"  response="000100000000" foes="111100110000" cont="0"/>
        <request index="2"  response="000011000000" foes="110011110000" cont="0"/>
        <request index="3"  response="000010000000" foes="100010000000" cont="0"/>
        <request index="4"  response="000110000111" foes="100110000111" cont="0"/>
        <request index="5"  response="011110000110" foes="011110000110" cont="0"/>
        <request index="6"  response="000000000000" foes="010000000100" cont="0"/>
        <request index="7"  response="000000000000" foes="110000111100" cont="0"/>
        <request index="8"  response="000000000000" foes="110000110011" cont="0"/>
        <request index="9"  response="000000000010" foes="000000100010" cont="0"/>
        <request index="10" response="000111000110" foes="000111100110" cont="0"/>
        <request index="11" response="000110011110" foes="000110011110" cont="0"/>
    </junction>
    <junction id="22" type="dead_end" x="-97.41" y="-12.77" incLanes="104_0" intLanes="" shape="-97.43,-10.57 -97.39,-14.97"/>
    <junction id="26" type="dead_end" x="90.49" y="-9.92" incLanes="110_0" intLanes="" shape="90.45,-12.08 90.52,-7.76"/>
    <junction id="27" type="dead_end" x="90.40" y="-4.67" incLanes="" intLanes="" shape="90.45,-6.88 90.35,-2.46"/>
    <junction id="28" type="dead_end" x="-25.62" y="196.43" incLanes="" intLanes="" shape="-23.34,196.70 -27.91,196.16"/>
    <junction id="29" type="dead_end" x="2.14" y="-44.02" incLanes="108_0" intLanes="" shape="-0.11,-44.19 4.39,-43.85"/>
    <junction id="30" type="dead_end" x="6.73" y="-43.67" incLanes="" intLanes="" shape="4.51,-43.84 8.94,-43.49"/>
    <junction id="32" type="dead_end" x="-20.78" y="197.08" incLanes="112_0" intLanes="" shape="-18.48,197.35 -23.08,196.81"/>

    <connection from="100" to="108" fromLane="0" toLane="0" contPos="-4.00" shape="-14.78,-16.62 -10.33,-16.67 -8.11,-16.97 -5.81,-17.47 -4.07,-17.97 -2.26,-19.07 -0.87,-20.37 0.28,-22.72 0.84,-25.37 0.99,-27.62" via=":20_6_0" tl="0" linkIndex="0" dir="r" state="O"/>
    <connection from="100" to="110" fromLane="0" toLane="0" contPos="-4.00" shape="-14.78,-16.62 2.09,-15.42 12.07,-14.52" via=":20_7_0" tl="0" linkIndex="0" dir="s" state="O"/>
    <connection from="100" to="112" fromLane="0" toLane="0" contPos="-4.00" shape="-14.78,-16.62 -9.37,-16.22 -6.08,-15.62 -3.85,-14.97 -2.12,-13.97 -0.08,-12.52 1.06,-11.22 2.19,-9.12 2.51,-7.22 2.57,-5.22 2.49,-2.32 2.37,-0.87" via=":20_8_0" tl="0" linkIndex="0" dir="l" state="O"/>
    <connection from="109" to="110" fromLane="0" toLane="0" contPos="-4.00" shape="5.46,-27.32 5.22,-24.07 5.26,-21.72 5.77,-19.57 6.78,-17.77 8.07,-16.37 9.00,-15.52 10.08,-15.02 12.07,-14.52" via=":20_3_0" dir="r" state="m"/>
    <connection from="109" to="112" fromLane="0" toLane="0" contPos="-4.00" shape="5.46,-27.32 4.77,-20.07 3.82,-12.92 2.89,-6.77 2.37,-0.87" via=":20_4_0" dir="s" state="m"/>
    <connection from="109" to="104" fromLane="0" toLane="0" contPos="-4.00" shape="5.46,-27.32 5.24,-24.42 4.55,-21.17 2.56,-17.57 0.19,-15.57 -2.44,-13.97 -4.75,-13.07 -7.28,-12.57 -9.78,-12.17 -14.82,-12.02" via=":20_5_0" dir="l" state="m"/>
    <connection from="111" to="112" fromLane="0" toLane="0" contPos="-4.00" shape="11.80,-10.07 9.63,-10.12 8.09,-9.97 6.62,-9.52 5.55,-8.97 4.58,-8.27 3.97,-7.52 3.31,-6.62 2.92,-5.67 2.58,-3.52 2.37,-0.87" via=":20_0_0" dir="r" state="m"/>
    <connection from="111" to="104" fromLane="0" toLane="0" contPos="-4.00" shape="11.80,-10.07 1.71,-10.92 -14.82,-12.02" via=":20_1_0" dir="s" state="m"/>
    <connection from="111" to="108" fromLane="0" toLane="0" contPos="-4.00" shape="11.80,-10.07 8.56,-10.52 6.62,-11.32 5.13,-12.77 3.11,-15.17 1.71,-17.62 0.89,-20.52 0.78,-24.02 0.99,-27.62" via=":20_2_0" dir="l" state="m"/>
    <connection from="113" to="104" fromLane="0" toLane="0" contPos="-4.00" shape="-2.28,-1.22 -2.16,-2.72 -1.98,-5.12 -2.00,-6.67 -2.14,-7.67 -2.60,-8.67 -3.25,-9.27 -4.57,-10.17 -5.72,-10.77 -7.19,-11.22 -9.88,-11.62 -14.82,-12.02" via=":20_9_0" dir="r" state="m"/>
    <connection from="113" to="108" fromLane="0" toLane="0" contPos="-4.00" shape="-2.28,-1.22 -1.71,-7.12 -0.83,-13.32 0.25,-20.47 0.99,-27.62" via=":20_10_0" dir="s" state="m"/>
    <connection from="113" to="110" fromLane="0" toLane="0" contPos="-4.00" shape="-2.28,-1.22 -1.98,-4.02 -1.57,-6.92 -1.04,-8.57 -0.03,-10.27 1.05,-11.72 2.84,-12.97 4.59,-13.92 6.97,-14.62 9.38,-14.67 12.07,-14.52" via=":20_11_0" dir="l" state="m"/>

    <connection from=":20_0" to="112" fromLane="0" toLane="0" dir="r" state="M"/>
    <connection from=":20_1" to="104" fromLane="0" toLane="0" dir="s" state="M"/>
    <connection from=":20_2" to="108" fromLane="0" toLane="0" dir="l" state="M"/>
    <connection from=":20_3" to="110" fromLane="0" toLane="0" dir="r" state="M"/>
    <connection from=":20_4" to="112" fromLane="0" toLane="0" dir="s" state="M"/>
    <connection from=":20_5" to="104" fromLane="0" toLane="0" dir="l" state="M"/>
    <connection from=":20_6" to="108" fromLane="0" toLane="0" dir="r" state="M"/>
    <connection from=":20_7" to="110" fromLane="0" toLane="0" dir="s" state="M"/>
    <connection from=":20_8" to="112" fromLane="0" toLane="0" dir="l" state="M"/>
    <connection from=":20_9" to="104" fromLane="0" toLane="0" dir="r" state="M"/>
    <connection from=":20_10" to="108" fromLane="0" toLane="0" dir="s" state="M"/>
    <connection from=":20_11" to="110" fromLane="0" toLane="0" dir="l" state="M"/>

</net>
