<tlLogics>
    <tlLogic id="0" programID="test" offset="0" type="static">
        <phase duration="10" state="r" />
        <phase duration="5" state="y" />
        <phase duration="40" state="G" />
    </tlLogic>
	<connection tl="0" linkIndex="0" from="100" to="112" fromLane="0" toLane="0" />
	<connection tl="0" linkIndex="0" from="100" to="110" fromLane="0" toLane="0" />
	<connection tl="0" linkIndex="0" from="100" to="108" fromLane="0" toLane="0" />
</tlLogics>